tests/fuzzer/corpus_json/24_columnar_21_random_011.json
{
  "version": "1.0",
  "type": "input",
  "is_batch": false,
  "attributes": {
    "node": [
      "id",
      "u_rated"
    ],
    "source": [
      "id",
      "node",
      "status",
      "u_ref",
      "u_ref_angle",
      "sk",
      "rx_ratio",
      "z01_ratio"
    ],
    "line": [
      "id",
      "from_node",
      "to_node",
      "from_status",
      "to_status",
      "r1",
      "x1",
      "c1",
      "tan1",
      "r0",
      "x0",
      "c0",
      "tan0",
      "i_n"
    ],
    "sym_load": [
      "id",
      "node",
      "status",
      "type",
      "p_specified",
      "q_specified"
    ]
  },
  "data": {
    "node": [
      [
        0,
        380000.0
      ],
      [
        1,
        380000.0
      ],
      [
        2,
        380000.0
      ],
      [
        3,
        380000.0
      ],
      [
        4,
        380000.0
      ],
      [
        5,
        380000.0
      ],
      [
        6,
        380000.0
      ],
      [
        7,
        380000.0
      ],
      [
        8,
        380000.0
      ]
    ],
    "source": [
      [
        9,
        0,
        1,
        1.0562436110759528,
        0.0,
        856877320.0841111,
        0.22591616029978268,
        1.0
      ]
    ],
    "line": [
      [
        10,
        0,
        1,
        1,
        1,
        0.9495101565368597,
        4.0195015636052425,
        4.7576323620887627e-07,
        0.0,
        0.3,
        0.3,
        1e-09,
        0.0,
        617.8192457187705
      ],
      [
        11,
        1,
        2,
        1,
        1,
        0.9308684279815649,
        2.232965763784992,
        1.4179512925945614e-07,
        0.0,
        0.3,
        0.3,
        1e-09,
        0.0,
        543.3065734919018
      ],
      [
        12,
        2,
        3,
        1,
        1,
        4.451902460062447,
        3.1722639144167424,
        5.954365058406696e-07,
        0.0,
        0.3,
        0.3,
        1e-09,
        0.0,
        402.1983766936525
      ],
      [
        13,
        3,
        4,
        1,
        1,
        2.2649743279040804,
        3.694579400701921,
        6.500709739140725e-07,
        0.0,
        0.3,
        0.3,
        1e-09,
        0.0,
        626.8971670035327
      ],
      [
        14,
        4,
        5,
        1,
        1,
        4.15850812674989,
        0.3158246002924109,
        3.565278045988274e-08,
        0.0,
        0.3,
        0.3,
        1e-09,
        0.0,
        880.7693228090076
      ],
      [
        15,
        5,
        6,
        1,
        1,
        2.9980904247642526,
        3.8905420327162163,
        3.262933525482647e-07,
        0.0,
        0.3,
        0.3,
        1e-09,
        0.0,
        595.049849033377
      ],
      [
        16,
        6,
        7,
        1,
        1,
        0.9766068875463346,
        1.1682281881679484,
        2.941515706462647e-07,
        0.0,
        0.3,
        0.3,
        1e-09,
        0.0,
        14.547834439762148
      ],
      [
        17,
        7,
        8,
        1,
        1,
        0.4249438068766098,
        3.2740081950337774,
        4.0677873788517856e-07,
        0.0,
        0.3,
        0.3,
        1e-09,
        0.0,
        555.7550582716965
      ]
    ],
    "sym_load": [
      [
        18,
        2,
        1,
        1,
        -36944.55659689002,
        -5406.681967841889
      ],
      [
        19,
        3,
        1,
        0,
        12628.452131581129,
        -7841.46168822053
      ],
      [
        20,
        4,
        1,
        1,
        -22697.293658813098,
        9160.847666396268
      ],
      [
        21,
        6,
        1,
        0,
        85408.42966775884,
        -8953.548152746667
      ],
      [
        22,
        7,
        1,
        2,
        -20515.122384143775,
        -8539.233123326041
      ]
    ]
  }
}
